
     RDKit          3D

  0  0  0  0  0  0  0  0  0  0999 V3000
M  V30 BEGIN CTAB
M  V30 COUNTS 15 15 0 0 0
M  V30 BEGIN ATOM
M  V30 1 C 2.2158 0.0324 -0.0218 0
M  V30 2 C 0.7287 0.0297 -0.0118 0
M  V30 3 C 0.0383 -1.1614 0.0667 0
M  V30 4 C -1.3527 -1.1977 0.0782 0
M  V30 5 C -2.0901 -0.0334 0.0108 0
M  V30 6 C -1.3920 1.1548 -0.0676 0
M  V30 7 C -0.0036 1.1972 -0.0794 0
M  V30 8 H 2.6349 -0.0844 1.0025 0
M  V30 9 H 2.5646 -0.8265 -0.6062 0
M  V30 10 H 2.5418 1.0131 -0.3925 0
M  V30 11 H 0.6086 -2.1021 0.1214 0
M  V30 12 H -1.8853 -2.1304 0.1396 0
M  V30 13 H -3.1787 -0.0848 0.0212 0
M  V30 14 H -1.9686 2.0588 -0.1199 0
M  V30 15 H 0.5383 2.1347 -0.1412 0
M  V30 END ATOM
M  V30 BEGIN BOND
M  V30 1 1 1 2
M  V30 2 2 2 3
M  V30 3 1 3 4
M  V30 4 2 4 5
M  V30 5 1 5 6
M  V30 6 2 6 7
M  V30 7 1 7 2
M  V30 8 1 1 8
M  V30 9 1 1 9
M  V30 10 1 1 10
M  V30 11 1 3 11
M  V30 12 1 4 12
M  V30 13 1 5 13
M  V30 14 1 6 14
M  V30 15 1 7 15
M  V30 END BOND
M  V30 END CTAB
M  END

$$$$
