170
e='4249.823439159263' rg='8.064591581900297'
C -2.539265 -1.258652 5.264906
C -1.272508 -0.533842 5.264920
C -1.240002 0.852666 5.264915
C -0.071293 1.564287 5.264912
C -0.057058 3.022874 5.264906
C 1.096753 0.849687 5.264916
C 1.135644 -0.543578 5.264921
C 2.410952 -1.249066 5.264906
C -0.068498 -1.196303 5.264924
H -2.519966 -2.331290 5.264926
H -2.198207 1.366919 5.264910
H 0.872513 3.566283 5.264909
H 2.049556 1.387347 5.264918
H 3.308020 -0.669524 5.264853
H -0.071162 -2.278757 5.264932
C -5.374833 -3.133525 1.121164
C -4.956375 -2.885377 -0.254822
C -4.155871 -3.790945 -0.934967
C -3.745013 -3.590602 -2.224674
C -2.902893 -4.554773 -2.923880
C -4.157591 -2.439833 -2.841515
C -4.961997 -1.488539 -2.216480
C -5.369299 -0.281907 -2.925189
C -5.338850 -1.748602 -0.925606
H -5.994137 -2.407300 1.611047
H -3.858962 -4.686998 -0.395016
H -2.589158 -4.380359 -3.939037
H -3.847174 -2.248173 -3.872932
H -5.034656 -0.150320 -3.930823
H -5.963812 -1.028507 -0.413160
C 5.152678 -2.933720 0.908531
C 4.728546 -2.695399 -0.467455
C 5.112538 -1.549357 -1.147601
C 4.733608 -1.293716 -2.437308
C 5.147544 -0.082333 -3.136513
C 3.943302 -2.226402 -3.054149
C 3.521660 -3.398686 -2.429114
C 2.680337 -4.354736 -3.137823
C 3.935307 -3.595019 -1.138239
H 4.833401 -3.833165 1.398413
H 5.740089 -0.844200 -0.607649
H 4.839630 0.102163 -4.151671
H 3.622111 -2.053404 -4.085566
H 2.399058 -4.130720 -4.143457
H 3.624168 -4.496299 -0.625794
C 0.277117 5.888956 0.743356
C 0.282791 5.402487 -0.632630
C -0.901706 5.162014 -1.312775
C -0.933633 4.706030 -2.602482
C -2.189689 4.458817 -3.301688
C 0.269251 4.487948 -3.219323
C 1.495299 4.708937 -2.594288
C 2.743924 4.458354 -3.302997
C 1.458505 5.165332 -1.303414
H 1.215698 6.062177 1.233239
H -1.826165 5.352910 -0.772824
H -2.195510 4.099908 -4.316845
H 0.280025 4.123289 -4.250740
H 2.690560 4.102752 -4.308631
H 2.394605 5.346518 -0.790968
N -3.999495 -2.425341 5.223593
C -5.415765 -2.815495 5.161259
C -5.787157 -3.278124 6.552266
C -7.061933 -4.059514 6.594534
C -7.708727 -3.930169 5.211283
C -6.793416 -4.717415 4.277598
C -5.525603 -3.894586 4.133801
N -5.475186 -3.277332 2.813798
H -5.963621 -1.884023 4.874471
H -4.966460 -3.945073 6.894586
H -5.910867 -2.390962 7.199190
H -6.865001 -5.155732 6.716028
H -7.733194 -3.736703 7.395857
H -8.705703 -4.380945 5.297076
H -7.773831 -2.874231 4.926368
H -6.484394 -5.662451 4.798149
H -7.265322 -4.964195 3.328501
H -4.607170 -4.542551 4.189235
N 3.699332 -2.369059 5.240841
C 4.745624 -3.400235 5.178578
C 5.332126 -3.490167 6.569543
C 6.646414 -4.203097 6.611804
C 6.857832 -4.828082 5.228637
C 7.081541 -3.641871 4.294733
C 5.734844 -2.955714 4.150951
N 5.175024 -3.221050 2.831046
H 4.213101 -4.340620 4.891996
H 5.499122 -2.445846 6.911674
H 4.625886 -4.040968 7.216627
H 7.497117 -3.484190 6.733098
H 6.702760 -4.945684 7.413245
H 7.746884 -5.465846 5.314450
H 5.976045 -5.412718 4.943903
H 7.745305 -2.901466 4.815099
H 7.531198 -3.927199 3.345640
H 5.836485 -1.836309 4.206190
N -0.231290 4.731746 4.640969
C 0.139258 6.153268 4.578579
C -0.075362 6.706265 5.969619
C -0.114349 8.200956 6.011893
C 0.320960 8.696330 4.628576
C -0.818699 8.297516 3.695064
C -0.740362 6.788126 3.551255
N -0.231290 6.435728 2.231175
H 1.219823 6.161757 4.291626
H -1.063334 6.329207 6.312089
H 0.754824 6.369640 6.616416
H -1.162067 8.578743 6.133547
H 0.501057 8.620747 6.813122
H 0.429312 9.785101 4.714351
H 1.267836 8.224538 4.343516
H -1.791511 8.502623 4.215764
H -0.796493 8.829584 2.745964
H -1.760826 6.316943 3.606845
N -1.521851 -5.378862 -3.455668
C -0.650193 -6.082881 -4.407769
C -1.466699 -7.231016 -4.957277
C -0.638255 -8.269686 -5.644484
C 0.777222 -7.696466 -5.772138
C 1.309176 -7.648984 -4.342422
C 0.555149 -6.529935 -3.646543
N 1.429533 -5.378862 -3.455668
H -0.410995 -5.329142 -5.198147
H -1.964019 -7.711781 -4.087171
H -2.189157 -6.831951 -5.691902
H -0.519470 -9.184004 -5.007971
H -1.050090 -8.571625 -6.612030
H 1.335789 -8.399982 -6.402685
H 0.737584 -6.700729 -6.227505
H 1.002445 -8.593010 -3.818692
H 2.391303 -7.543481 -4.294970
H 0.237722 -6.831527 -2.609850
N -5.245782 1.408822 -3.680600
C -5.790215 2.729654 -4.028337
C -6.977649 2.472400 -4.928713
C -7.423593 3.686470 -5.680096
C -6.655211 4.877297 -5.097023
C -5.207724 4.655838 -5.527204
C -4.694363 3.488773 -4.702888
N -3.770090 3.964795 -3.680600
H -6.099376 3.184350 -3.054835
H -6.653889 1.711221 -5.671231
H -7.824138 2.126897 -4.308263
H -7.107322 3.641032 -6.753941
H -8.506709 3.836261 -5.643458
H -7.093386 5.775255 -5.551109
H -6.760516 4.892324 -4.006561
H -5.204884 4.300015 -6.591602
H -4.597546 5.553084 -5.443457
H -4.093032 2.775062 -5.331751
N 5.719316 1.464169 -4.042220
C 5.893186 2.571056 -4.994321
C 7.295753 2.438009 -5.543830
C 7.781046 3.674797 -6.231037
C 6.576884 4.614027 -6.358691
C 6.269787 5.050972 -4.928975
C 5.677675 3.838440 -4.233095
N 4.243624 4.020142 -4.042220
H 5.120830 2.401338 -5.784699
H 7.960768 2.247699 -4.673723
H 7.311382 1.612809 -6.278455
H 8.513476 4.234827 -5.594524
H 8.248450 3.469107 -7.198582
H 6.906863 5.449517 -6.989237
H 5.734370 4.081830 -6.814057
H 7.240702 5.257347 -4.405244
H 5.637355 5.935369 -4.881523
H 6.097575 3.714337 -3.196402
Br 1.187001 0.000000 0.000000
Br -1.187001 0.000000 0.000000
80
e='69001.98212643963' rg='7.271655994630595'
C -1.213436 -0.700577 7.692133
C 0.002427 0.019462 8.153242
C 1.228923 -0.712778 7.692133
C -0.015487 1.413355 7.692133
H -1.410645 -0.866019 6.646722
H 0.022807 0.032828 9.263985
H 1.377876 -0.850759 6.615830
H 0.769601 2.127094 7.909346
C -6.685079 -3.859632 -1.243023
C -6.645858 -3.855049 -2.728904
C -6.692123 -2.441402 -3.231449
C -5.464600 -4.577285 -3.217661
H -5.927022 -3.370385 -0.655542
H -7.545059 -4.375802 -3.122092
H -5.892988 -1.756043 -2.929257
H -5.229876 -4.702235 -4.267547
C 6.685079 -3.859632 -1.243023
C 6.661499 -3.827957 -2.728904
C 5.460378 -4.574847 -3.231449
C 6.696345 -2.443840 -3.217661
H 5.882350 -3.447759 -0.655542
H 7.562085 -4.346311 -3.122092
H 4.467272 -4.225456 -2.929257
H 6.687193 -2.178088 -4.267547
C -0.000000 7.719264 -1.243023
C -0.015641 7.683006 -2.728904
C 1.231745 7.016250 -3.231449
C -1.231745 7.021124 -3.217661
H 0.044672 6.818144 -0.655542
H -0.017027 8.722114 -3.122092
H 1.425717 5.981499 -2.929257
H -1.457317 6.880323 -4.267547
N -3.217755 -1.857772 4.419093
C -4.605053 -2.231333 4.442108
C -4.928956 -3.207931 3.315232
N -4.680760 -2.702438 2.030017
H -5.247674 -1.330030 4.365139
H -4.778399 -2.783091 5.391129
H -4.238774 -4.083144 3.488397
H -5.970227 -3.551659 3.421200
N 3.225498 -1.863872 4.419093
C 4.242450 -2.878739 4.442054
C 5.250286 -2.671014 3.315278
N 4.688503 -2.708538 2.030017
H 3.783008 -3.885812 4.364924
H 4.806916 -2.753218 5.391132
H 5.663352 -1.635799 3.488604
H 6.068440 -3.401099 3.421213
N -0.007744 3.721644 4.419093
C 0.360803 5.110277 4.442403
C -0.322972 5.878312 3.314981
N -0.007744 5.410976 2.030017
H 1.462605 5.217398 4.366316
H -0.031601 5.535835 5.391111
H -1.425976 5.716955 3.487264
H -0.101313 6.952194 3.421126
N -1.465116 -4.576066 -3.224555
C -0.682420 -5.300270 -4.187669
C 0.681541 -5.675456 -3.615523
N 1.460894 -4.576066 -3.224555
H -0.558448 -4.699922 -5.112572
H -1.211341 -6.257805 -4.383879
H 0.447714 -6.285689 -2.696134
H 1.214880 -6.313621 -4.337962
N -4.693436 1.022862 -3.224555
C -5.298547 2.276001 -3.582542
C -4.259262 3.250937 -4.128338
N -3.230432 3.556860 -3.224555
H -5.815956 2.717878 -2.706034
H -6.001998 2.071394 -4.418257
H -3.804158 2.718182 -5.012300
H -4.767701 4.160331 -4.486267
N 4.695547 1.019206 -3.224555
C 4.931379 2.059142 -4.187669
C 4.574318 3.427960 -3.615523
N 3.232542 3.553204 -3.224555
H 4.349476 1.866331 -5.112572
H 6.025088 2.079850 -4.383879
H 5.219710 3.530576 -2.696134
H 4.860316 4.208927 -4.337962
80
e='3541.3491046932395' rg='5.472767402726612'
C -1.255585 -0.422519 4.077182
C -0.039723 0.297521 4.538291
C 1.186773 -0.434719 4.077182
C -0.057637 1.691414 4.077182
H -1.452795 -0.587960 3.031771
H -0.019343 0.310887 5.649034
H 1.335727 -0.572700 3.000879
H 0.727451 2.405153 4.294395
C -3.749829 -1.780548 0.183890
C -3.710608 -1.775965 -1.301990
C -3.756873 -0.362318 -1.804536
C -2.529350 -2.498201 -1.790748
H -2.991772 -1.291301 0.771371
H -4.609809 -2.296718 -1.695179
H -2.957739 0.323041 -1.502343
H -2.294626 -2.623151 -2.840634
C 3.623250 -2.036431 -0.262952
C 3.599671 -2.004756 -1.748833
C 2.398549 -2.751646 -2.251378
C 3.634516 -0.620638 -2.237590
H 2.820522 -1.624557 0.324529
H 4.500257 -2.523110 -2.142021
H 1.405443 -2.402255 -1.949186
H 3.625364 -0.354887 -3.287476
C -0.165382 5.015399 -0.129381
C -0.181023 4.979141 -1.615261
C 1.066363 4.312384 -2.117807
C -1.397127 4.317259 -2.104019
H -0.120710 4.114278 0.458100
H -0.182408 6.018248 -2.008450
H 1.260335 3.277633 -1.815614
H -1.622699 4.176457 -3.153905
N -2.486978 -1.428420 4.102662
C -3.874276 -1.801981 4.125677
C -4.198179 -2.778579 2.998801
N -3.949983 -2.273086 1.713586
H -4.516897 -0.900678 4.048708
H -4.047622 -2.353739 5.074698
H -3.507997 -3.653792 3.171966
H -5.239450 -3.122307 3.104769
N 2.491408 -1.460608 3.681493
C 3.508360 -2.475475 3.704454
C 4.516195 -2.267750 2.577678
N 3.954413 -2.305274 1.292416
H 3.048917 -3.482548 3.627324
H 4.072826 -2.349954 4.653532
H 4.929261 -1.232535 2.751003
H 5.334349 -2.997834 2.683613
N -0.043150 3.558952 3.906022
C 0.325396 4.947586 3.929332
C -0.358378 5.715620 2.801910
N -0.043150 5.248285 1.516945
H 1.427199 5.054707 3.853244
H -0.067007 5.373144 4.878040
H -1.461383 5.554264 2.974192
H -0.136720 6.789502 2.908055
N -1.594724 -3.795798 -2.658274
C -0.812029 -4.520003 -3.621388
C 0.551933 -4.895188 -3.049242
N 1.331285 -3.795798 -2.658274
H -0.688057 -3.919654 -4.546291
H -1.340950 -5.477537 -3.817598
H 0.318105 -5.505422 -2.129853
H 1.085271 -5.533353 -3.771680
N -4.012942 0.808983 -2.769006
C -4.618052 2.062123 -3.126994
C -3.578767 3.037058 -3.672789
N -2.549937 3.342982 -2.769006
H -5.135461 2.503999 -2.250486
H -5.321503 1.857515 -3.962709
H -3.123663 2.504303 -4.556751
H -4.087207 3.946453 -4.030719
N 3.899485 1.167738 -2.733970
C 4.135317 2.207675 -3.697084
C 3.778256 3.576493 -3.124938
N 2.436481 3.701737 -2.733970
H 3.553414 2.014863 -4.621987
H 5.229026 2.228383 -3.893294
H 4.423648 3.679109 -2.205550
H 4.064254 4.357460 -3.847377
122
e='361.28646712346455' rg='15.220721731729968'
Pd 0.000000 6.706139 0.000000
Pd 0.000000 -6.706139 0.000000
C 14.617151 4.788114 -0.606619
N 13.412279 4.893306 -0.000000
C 12.901820 3.799282 0.593223
C 13.565877 2.587447 0.599618
C 14.793916 2.474878 -0.017105
C 15.493884 1.192641 -0.008968
C 16.871077 1.129187 -0.007671
C 17.556534 -0.083989 0.000424
C 16.857801 -1.274026 0.007511
C 15.478020 -1.242464 0.006411
C 14.749705 -2.493615 0.014614
C 13.522003 -2.591883 0.623452
C 12.880642 -3.809551 0.596673
N 13.412279 -4.893306 0.000000
C 14.611776 -4.815506 -0.600290
C 15.264750 -3.621907 -0.586634
C 14.814107 -0.014410 -0.001813
C 15.314784 3.598395 -0.624584
H 14.994387 5.697699 -1.075037
H 11.924946 3.831871 1.100866
H 13.163007 1.699657 1.074149
H 17.434224 2.059040 -0.013178
H 18.634873 -0.106053 0.001236
H 17.372346 -2.236272 0.013913
H 13.043071 -1.745509 1.122496
H 11.901981 -3.902911 1.077175
H 15.031603 -5.708122 -1.081966
H 16.239128 -3.598600 -1.085790
H 13.746032 0.012568 -0.002636
H 16.263366 3.574652 -1.119470
C 0.606619 4.788114 14.617151
N 0.000000 4.893306 13.412279
C -0.593223 3.799282 12.901820
C -0.599618 2.587447 13.565877
C 0.017105 2.474878 14.793916
C 0.008968 1.192641 15.493884
C 0.007671 1.129187 16.871077
C -0.000424 -0.083989 17.556534
C -0.007511 -1.274026 16.857801
C -0.006411 -1.242464 15.478020
C -0.014614 -2.493615 14.749705
C -0.623452 -2.591883 13.522003
C -0.596673 -3.809551 12.880642
N 0.000000 -4.893306 13.412279
C 0.600290 -4.815506 14.611776
C 0.586634 -3.621907 15.264750
C 0.001813 -0.014410 14.814107
C 0.624584 3.598395 15.314784
H 1.075037 5.697699 14.994387
H -1.100866 3.831871 11.924946
H -1.074149 1.699657 13.163007
H 0.013178 2.059040 17.434224
H -0.001236 -0.106053 18.634873
H -0.013913 -2.236272 17.372346
H -1.122496 -1.745509 13.043071
H -1.077175 -3.902911 11.901981
H 1.081966 -5.708122 15.031603
H 1.085790 -3.598600 16.239128
H 0.002636 0.012568 13.746032
H 1.119470 3.574652 16.263366
C -14.617151 4.788114 0.606619
N -13.412279 4.893306 0.000000
C -12.901820 3.799282 -0.593223
C -13.565877 2.587447 -0.599618
C -14.793916 2.474878 0.017105
C -15.493884 1.192641 0.008968
C -16.871077 1.129187 0.007671
C -17.556534 -0.083989 -0.000424
C -16.857801 -1.274026 -0.007511
C -15.478020 -1.242464 -0.006411
C -14.749705 -2.493615 -0.014614
C -13.522003 -2.591883 -0.623452
C -12.880642 -3.809551 -0.596673
N -13.412279 -4.893306 -0.000000
C -14.611776 -4.815506 0.600290
C -15.264750 -3.621907 0.586634
C -14.814107 -0.014410 0.001813
C -15.314784 3.598395 0.624584
H -14.994387 5.697699 1.075037
H -11.924946 3.831871 -1.100866
H -13.163007 1.699657 -1.074149
H -17.434224 2.059040 0.013178
H -18.634873 -0.106053 -0.001236
H -17.372346 -2.236272 -0.013913
H -13.043071 -1.745509 -1.122496
H -11.901981 -3.902911 -1.077175
H -15.031603 -5.708122 1.081966
H -16.239128 -3.598600 1.085790
H -13.746032 0.012568 0.002636
H -16.263366 3.574652 1.119470
C -0.606619 4.788114 -14.617151
N -0.000000 4.893306 -13.412279
C 0.593223 3.799282 -12.901820
C 0.599618 2.587447 -13.565877
C -0.017105 2.474878 -14.793916
C -0.008968 1.192641 -15.493884
C -0.007671 1.129187 -16.871077
C 0.000424 -0.083989 -17.556534
C 0.007511 -1.274026 -16.857801
C 0.006411 -1.242464 -15.478020
C 0.014614 -2.493615 -14.749705
C 0.623452 -2.591883 -13.522003
C 0.596673 -3.809551 -12.880642
N -0.000000 -4.893306 -13.412279
C -0.600290 -4.815506 -14.611776
C -0.586634 -3.621907 -15.264750
C -0.001813 -0.014410 -14.814107
C -0.624584 3.598395 -15.314784
H -1.075037 5.697699 -14.994387
H 1.100866 3.831871 -11.924946
H 1.074149 1.699657 -13.163007
H -0.013178 2.059040 -17.434224
H 0.001236 -0.106053 -18.634873
H 0.013913 -2.236272 -17.372346
H 1.122496 -1.745509 -13.043071
H 1.077175 -3.902911 -11.901981
H -1.081966 -5.708122 -15.031603
H -1.085790 -3.598600 -16.239128
H -0.002636 0.012568 -13.746032
H -1.119470 3.574652 -16.263366
